Circuit: * Z:\home\llev\OneDrive\4_letni\MPS\mps_projekt\Draft2.asc

WARNING: Less than two connections to node 1.  This node is used by VCC.
WARNING: Less than two connections to node 2.  This node is used by RLOAD.
Direct Newton iteration for .op point succeeded.
Semiconductor Device Operating Points:
                        --- Diodes ---
Name:    d:ref:3     d:ref:2     d:ref:1
Model:  ref:dmod2   ref:dmod1   ref:dmod1
Id:     -1.77e-09   -8.86e-10   -8.86e-10
Vd:     -1.77e+03   -8.86e+02   -8.87e+02
Req:     1.00e+12    1.00e+12    1.00e+12
CAP:     0.00e+00    0.00e+00    0.00e+00



Date: Tue Feb 25 23:33:46 2025
Total elapsed time: 0.069 seconds.

tnom = 27
temp = 27
method = trap
totiter = 6
traniter = 0
tranpoints = 0
accept = 0
rejected = 0
matrix size = 15
fillins = 6
solver = Normal
Matrix Compiler1:      45 opcodes
Matrix Compiler2:      88 opcodes
