Circuit: * Z:\home\llev\OneDrive\4_letni\MPS\mps_projekt\Draft1.asc

Fatal Error: Unknown subcircuit called in:
   xref 3 0 4 tl431
